Version 4
SHEET 1 880 680
FLAG 144 272 0
