Version 4
SHEET 1 1640 680
WIRE 240 -32 128 -32
WIRE 432 -32 320 -32
WIRE 560 -32 432 -32
WIRE 736 -32 640 -32
WIRE 432 -16 432 -32
WIRE 736 64 736 -32
WIRE 128 96 128 -32
WIRE 432 112 432 64
WIRE 128 240 128 176
WIRE 432 240 432 192
WIRE 432 240 128 240
WIRE 736 240 736 144
WIRE 736 240 432 240
WIRE 128 272 128 240
FLAG 128 272 0
SYMBOL res 224 -48 M90
WINDOW 0 0 56 VBottom 2
WINDOW 3 32 56 VTop 2
SYMATTR InstName R1
SYMATTR Value 5
SYMBOL res 416 -32 R0
SYMATTR InstName R3
SYMATTR Value 10
SYMBOL res 544 -16 R270
WINDOW 0 32 56 VTop 2
WINDOW 3 0 56 VBottom 2
SYMATTR InstName R2
SYMATTR Value 6
SYMBOL res 720 48 R0
SYMATTR InstName R4
SYMATTR Value 4
SYMBOL Misc\\battery 128 80 R0
WINDOW 123 0 0 Left 0
WINDOW 39 0 0 Left 0
SYMATTR InstName V1
SYMATTR Value 15
SYMBOL Misc\\battery 432 96 R0
WINDOW 123 0 0 Left 0
WINDOW 39 0 0 Left 0
SYMATTR InstName V2
SYMATTR Value 10
TEXT 96 296 Left 2 !.tran 20
TEXT 592 120 Left 2 ;I2
TEXT 288 120 Left 2 ;I1
LINE Normal 640 80 560 80 2
LINE Normal 640 160 640 80 2
LINE Normal 560 160 640 160 2
LINE Normal 560 112 560 160 2
LINE Normal 576 128 560 112 2
LINE Normal 544 128 560 112 2
LINE Normal 336 80 256 80 2
LINE Normal 336 160 336 80 2
LINE Normal 256 160 336 160 2
LINE Normal 256 112 256 160 2
LINE Normal 272 128 256 112 2
LINE Normal 240 128 256 112 2
